ligands/AZD5305.pdb
     RDKit          3D

 32 35  0  0  0  0  0  0  0  0999 V2000
   43.2440   39.9170  111.3610 N   0  0  0  0  0  0  0  0  0  0  0  0
   43.2850   38.6670  110.5610 C   0  0  0  0  0  2  0  0  0  0  0  0
   42.6470   38.7160  109.1500 C   0  0  0  0  0  2  0  0  0  0  0  0
   41.3100   39.3330  109.1930 N   0  0  0  0  0  0  0  0  0  0  0  0
   41.2080   40.5860  109.9580 C   0  0  0  0  0  2  0  0  0  0  0  0
   41.8590   40.4270  111.3530 C   0  0  0  0  0  2  0  0  0  0  0  0
   40.3410   38.9960  108.2600 C   0  0  0  0  0  0  0  0  0  0  0  0
   38.9700   39.1600  108.4980 C   0  0  0  0  0  3  0  0  0  0  0  0
   38.0130   38.6680  107.6050 C   0  0  0  0  0  3  0  0  0  0  0  0
   38.4400   38.0040  106.4680 C   0  0  0  0  0  0  0  0  0  0  0  0
   39.7570   37.8680  106.1400 N   0  0  0  0  0  0  0  0  0  0  0  0
   40.6520   38.3740  107.0410 C   0  0  0  0  0  3  0  0  0  0  0  0
   37.4450   37.3230  105.5790 C   0  0  0  0  0  0  0  0  0  0  0  0
   36.5280   37.9470  105.0580 O   0  0  0  0  0  0  0  0  0  0  0  0
   37.6330   35.9650  105.4340 N   0  0  0  0  0  0  0  0  0  0  0  0
   36.7680   35.1400  104.6330 C   0  0  0  0  0  1  0  0  0  0  0  0
   38.4600   35.5720  105.8730 H   0  0  0  0  0  0  0  0  0  0  0  0
   44.2240   40.9380  110.9490 C   0  0  0  0  0  2  0  0  0  0  0  0
   48.2810   39.8760  115.8080 C   0  0  0  0  0  0  0  0  0  0  0  0
   48.5420   40.0760  114.5030 C   0  0  0  0  0  3  0  0  0  0  0  0
   47.4960   40.5350  113.5940 C   0  0  0  0  0  0  0  0  0  0  0  0
   47.7480   40.4580  112.2700 N   0  0  0  0  0  0  0  0  0  0  0  0
   46.6900   40.6700  111.4500 C   0  0  0  0  0  3  0  0  0  0  0  0
   45.4070   40.9970  111.8910 C   0  0  0  0  0  0  0  0  0  0  0  0
   45.2290   41.2320  113.2610 C   0  0  0  0  0  3  0  0  0  0  0  0
   46.2650   40.9130  114.1260 C   0  0  0  0  0  0  0  0  0  0  0  0
   46.0370   40.8120  115.5030 N   0  0  0  0  0  0  0  0  0  0  0  0
   46.9250   40.2100  116.3580 C   0  0  0  0  0  0  0  0  0  0  0  0
   46.6140   39.9550  117.5160 O   0  0  0  0  0  0  0  0  0  0  0  0
   45.1200   41.0060  115.8830 H   0  0  0  0  0  0  0  0  0  0  0  0
   50.3590   38.4860  116.0880 C   0  0  0  0  0  1  0  0  0  0  0  0
   49.3030   39.3430  116.7750 C   0  0  0  0  0  2  0  0  0  0  0  0
  2  1  1  0
  3  4  1  0
  3  2  1  0
  4  5  1  0
  5  6  1  0
  6  1  1  0
  7  8  1  0
  7  4  1  0
  9  8  2  0
 10  9  1  0
 11 10  2  0
 11 12  1  0
 12  7  2  0
 13 10  1  0
 14 13  2  0
 15 13  1  0
 15 17  1  0
 16 15  1  0
 18  1  1  0
 18 24  1  0
 19 28  1  0
 19 32  1  0
 20 19  2  0
 21 26  2  0
 21 20  1  0
 22 21  1  0
 23 24  1  0
 23 22  2  0
 24 25  2  0
 25 26  1  0
 26 27  1  0
 27 30  1  0
 27 28  1  0
 28 29  2  0
 31 32  1  0
M  RAD  8   2   3   3   3   5   3   6   3   8   2   9   2  12   2  16   2
M  RAD  6  18   3  20   2  23   2  25   2  31   2  32   3
M  END
