ligands/AZD5305.pdb
     RDKit          3D

 56 59  0  0  0  0  0  0  0  0999 V2000
   43.2440   39.9170  111.3610 N   0  0  0  0  0  0  0  0  0  0  0  0
   43.2850   38.6670  110.5610 C   0  0  0  0  0  0  0  0  0  0  0  0
   42.6470   38.7160  109.1500 C   0  0  0  0  0  0  0  0  0  0  0  0
   41.3100   39.3330  109.1930 N   0  0  0  0  0  0  0  0  0  0  0  0
   41.2080   40.5860  109.9580 C   0  0  0  0  0  0  0  0  0  0  0  0
   41.8590   40.4270  111.3530 C   0  0  0  0  0  0  0  0  0  0  0  0
   40.3410   38.9960  108.2600 C   0  0  0  0  0  0  0  0  0  0  0  0
   38.9700   39.1600  108.4980 C   0  0  0  0  0  0  0  0  0  0  0  0
   38.0130   38.6680  107.6050 C   0  0  0  0  0  0  0  0  0  0  0  0
   38.4400   38.0040  106.4680 C   0  0  0  0  0  0  0  0  0  0  0  0
   39.7570   37.8680  106.1400 N   0  0  0  0  0  0  0  0  0  0  0  0
   40.6520   38.3740  107.0410 C   0  0  0  0  0  0  0  0  0  0  0  0
   37.4450   37.3230  105.5790 C   0  0  0  0  0  0  0  0  0  0  0  0
   36.5280   37.9470  105.0580 O   0  0  0  0  0  0  0  0  0  0  0  0
   37.6330   35.9650  105.4340 N   0  0  0  0  0  0  0  0  0  0  0  0
   36.7680   35.1400  104.6330 C   0  0  0  0  0  0  0  0  0  0  0  0
   38.4600   35.5720  105.8730 H   0  0  0  0  0  0  0  0  0  0  0  0
   44.2240   40.9380  110.9490 C   0  0  0  0  0  0  0  0  0  0  0  0
   48.2810   39.8760  115.8080 C   0  0  0  0  0  0  0  0  0  0  0  0
   48.5420   40.0760  114.5030 C   0  0  0  0  0  0  0  0  0  0  0  0
   47.4960   40.5350  113.5940 C   0  0  0  0  0  0  0  0  0  0  0  0
   47.7480   40.4580  112.2700 N   0  0  0  0  0  0  0  0  0  0  0  0
   46.6900   40.6700  111.4500 C   0  0  0  0  0  0  0  0  0  0  0  0
   45.4070   40.9970  111.8910 C   0  0  0  0  0  0  0  0  0  0  0  0
   45.2290   41.2320  113.2610 C   0  0  0  0  0  0  0  0  0  0  0  0
   46.2650   40.9130  114.1260 C   0  0  0  0  0  0  0  0  0  0  0  0
   46.0370   40.8120  115.5030 N   0  0  0  0  0  0  0  0  0  0  0  0
   46.9250   40.2100  116.3580 C   0  0  0  0  0  0  0  0  0  0  0  0
   46.6140   39.9550  117.5160 O   0  0  0  0  0  0  0  0  0  0  0  0
   45.1200   41.0060  115.8830 H   0  0  0  0  0  0  0  0  0  0  0  0
   50.3590   38.4860  116.0880 C   0  0  0  0  0  0  0  0  0  0  0  0
   49.3030   39.3430  116.7750 C   0  0  0  0  0  0  0  0  0  0  0  0
   44.3413   38.3855  110.4384 H   0  0  0  0  0  0  0  0  0  0  0  0
   42.6765   37.9453  111.1257 H   0  0  0  0  0  0  0  0  0  0  0  0
   42.5572   37.6911  108.7606 H   0  0  0  0  0  0  0  0  0  0  0  0
   43.2908   39.3231  108.4966 H   0  0  0  0  0  0  0  0  0  0  0  0
   41.7224   41.3881  109.4083 H   0  0  0  0  0  0  0  0  0  0  0  0
   40.1448   40.8359  110.0892 H   0  0  0  0  0  0  0  0  0  0  0  0
   41.8598   41.4136  111.8395 H   0  0  0  0  0  0  0  0  0  0  0  0
   41.2587   39.6696  111.8783 H   0  0  0  0  0  0  0  0  0  0  0  0
   38.6398   39.6864  109.4057 H   0  0  0  0  0  0  0  0  0  0  0  0
   36.9398   38.8062  107.8026 H   0  0  0  0  0  0  0  0  0  0  0  0
   41.7183   38.2851  106.7860 H   0  0  0  0  0  0  0  0  0  0  0  0
   36.1298   34.5313  105.2904 H   0  0  0  0  0  0  0  0  0  0  0  0
   36.1366   35.7789  103.9981 H   0  0  0  0  0  0  0  0  0  0  0  0
   37.3763   34.4791  103.9981 H   0  0  0  0  0  0  0  0  0  0  0  0
   44.5856   40.6966  109.9386 H   0  0  0  0  0  0  0  0  0  0  0  0
   43.7241   41.9177  110.9676 H   0  0  0  0  0  0  0  0  0  0  0  0
   49.5553   39.8915  114.1168 H   0  0  0  0  0  0  0  0  0  0  0  0
   46.8532   40.5783  110.3660 H   0  0  0  0  0  0  0  0  0  0  0  0
   44.2895   41.6595  113.6414 H   0  0  0  0  0  0  0  0  0  0  0  0
   50.9762   37.9851  116.8484 H   0  0  0  0  0  0  0  0  0  0  0  0
   49.8656   37.7297  115.4598 H   0  0  0  0  0  0  0  0  0  0  0  0
   50.9975   39.1245  115.4598 H   0  0  0  0  0  0  0  0  0  0  0  0
   49.8013   40.1918  117.2662 H   0  0  0  0  0  0  0  0  0  0  0  0
   48.7773   38.7085  117.5037 H   0  0  0  0  0  0  0  0  0  0  0  0
  2  1  1  0
  3  4  1  0
  3  2  1  0
  4  5  1  0
  5  6  1  0
  6  1  1  0
  7  8  2  0
  7  4  1  0
  9  8  1  0
 10  9  2  0
 11 10  1  0
 11 12  2  0
 12  7  1  0
 13 10  1  0
 14 13  2  0
 15 13  1  0
 15 17  1  0
 16 15  1  0
 18  1  1  0
 18 24  1  0
 19 28  1  0
 19 32  1  0
 20 19  2  0
 21 26  2  0
 21 20  1  0
 22 21  1  0
 23 24  1  0
 23 22  2  0
 24 25  2  0
 25 26  1  0
 26 27  1  0
 27 30  1  0
 27 28  1  0
 28 29  2  0
 31 32  1  0
  2 33  1  0
  2 34  1  0
  3 35  1  0
  3 36  1  0
  5 37  1  0
  5 38  1  0
  6 39  1  0
  6 40  1  0
  8 41  1  0
  9 42  1  0
 12 43  1  0
 16 44  1  0
 16 45  1  0
 16 46  1  0
 18 47  1  0
 18 48  1  0
 20 49  1  0
 23 50  1  0
 25 51  1  0
 31 52  1  0
 31 53  1  0
 31 54  1  0
 32 55  1  0
 32 56  1  0
M  END
