fluzoparib
     RDKit          3D

 50 54  0  0  0  0  0  0  0  0999 V2000
   40.0340   39.2680  112.0040 C   0  0  0  0  0  0  0  0  0  0  0  0
   39.0900   38.5750  111.0290 C   0  0  0  0  0  0  0  0  0  0  0  0
   39.2190   39.1920  109.7250 N   0  0  0  0  0  0  0  0  0  0  0  0
   40.2720   39.9560  109.3090 C   0  0  0  0  0  0  0  0  0  0  0  0
   40.0680   40.3100  108.0590 N   0  0  0  0  0  0  0  0  0  0  0  0
   38.8470   39.7250  107.7360 C   0  0  0  0  0  0  0  0  0  0  0  0
   38.3030   39.0280  108.7590 N   0  0  0  0  0  0  0  0  0  0  0  0
   38.2010   39.8620  106.3730 C   0  0  0  0  0  0  0  0  0  0  0  0
   37.3800   40.9470  106.2950 F   0  0  0  0  0  0  0  0  0  0  0  0
   37.4430   38.7770  106.0480 F   0  0  0  0  0  0  0  0  0  0  0  0
   39.1130   40.0020  105.3700 F   0  0  0  0  0  0  0  0  0  0  0  0
   41.4100   40.2940  110.2160 C   0  0  0  0  0  0  0  0  0  0  0  0
   41.3630   39.4250  111.4020 N   0  0  0  0  0  0  0  0  0  0  0  0
   42.3360   38.4780  111.7060 C   0  0  0  0  0  0  0  0  0  0  0  0
   42.0920   37.4740  112.3750 O   0  0  0  0  0  0  0  0  0  0  0  0
   43.7180   38.6470  111.2140 C   0  0  0  0  0  0  0  0  0  0  0  0
   44.2250   37.8630  110.1810 C   0  0  0  0  0  0  0  0  0  0  0  0
   45.5180   38.0690  109.7110 C   0  0  0  0  0  0  0  0  0  0  0  0
   46.3050   39.0850  110.2600 C   0  0  0  0  0  0  0  0  0  0  0  0
   45.7960   39.9140  111.2720 C   0  0  0  0  0  0  0  0  0  0  0  0
   44.4990   39.6800  111.7520 C   0  0  0  0  0  0  0  0  0  0  0  0
   46.6390   41.0230  111.8620 C   0  0  0  0  0  0  0  0  0  0  0  0
   47.7320   40.5190  112.7960 C   0  0  0  0  0  0  0  0  0  0  0  0
   48.8780   40.2220  112.2550 N   0  0  0  0  0  0  0  0  0  0  0  0
   49.8790   39.7800  113.0610 N   0  0  0  0  0  0  0  0  0  0  0  0
   49.8100   39.6130  114.4220 C   0  0  0  0  0  0  0  0  0  0  0  0
   50.7610   39.2110  115.0830 O   0  0  0  0  0  0  0  0  0  0  0  0
   48.5220   39.9440  115.0510 C   0  0  0  0  0  0  0  0  0  0  0  0
   48.3600   39.8030  116.4360 C   0  0  0  0  0  0  0  0  0  0  0  0
   47.1390   40.1190  117.0250 C   0  0  0  0  0  0  0  0  0  0  0  0
   46.0820   40.5710  116.2340 C   0  0  0  0  0  0  0  0  0  0  0  0
   46.2450   40.7090  114.8520 C   0  0  0  0  0  0  0  0  0  0  0  0
   47.4720   40.3960  114.2540 C   0  0  0  0  0  0  0  0  0  0  0  0
   43.4870   36.8940  109.6230 F   0  0  0  0  0  0  0  0  0  0  0  0
   39.6307   40.2597  112.2567 H   0  0  0  0  0  0  0  0  0  0  0  0
   40.1231   38.6546  112.9127 H   0  0  0  0  0  0  0  0  0  0  0  0
   39.3503   37.5085  110.9593 H   0  0  0  0  0  0  0  0  0  0  0  0
   38.0535   38.6723  111.3842 H   0  0  0  0  0  0  0  0  0  0  0  0
   42.3610   40.1396  109.6851 H   0  0  0  0  0  0  0  0  0  0  0  0
   41.3321   41.3461  110.5275 H   0  0  0  0  0  0  0  0  0  0  0  0
   45.9203   37.4332  108.9085 H   0  0  0  0  0  0  0  0  0  0  0  0
   47.3319   39.2364  109.8960 H   0  0  0  0  0  0  0  0  0  0  0  0
   44.0918   40.3110  112.5558 H   0  0  0  0  0  0  0  0  0  0  0  0
   47.1123   41.5774  111.0382 H   0  0  0  0  0  0  0  0  0  0  0  0
   45.9686   41.6587  112.4590 H   0  0  0  0  0  0  0  0  0  0  0  0
   50.7744   39.5483  112.6078 H   0  0  0  0  0  0  0  0  0  0  0  0
   49.1950   39.4438  117.0555 H   0  0  0  0  0  0  0  0  0  0  0  0
   47.0076   40.0126  118.1119 H   0  0  0  0  0  0  0  0  0  0  0  0
   45.1168   40.8197  116.6994 H   0  0  0  0  0  0  0  0  0  0  0  0
   45.4077   41.0642  114.2333 H   0  0  0  0  0  0  0  0  0  0  0  0
  1  2  1  0
  2  3  1  0
  3  4  1  0
  4  5  2  0
  5  6  1  0
  6  7  2  0
  6  8  1  0
  8  9  1  0
  8 10  1  0
  8 11  1  0
  4 12  1  0
 12 13  1  0
 13 14  1  0
 14 15  2  0
 14 16  1  0
 16 17  2  0
 17 18  1  0
 18 19  2  0
 19 20  1  0
 20 21  2  0
 20 22  1  0
 22 23  1  0
 23 24  2  0
 24 25  1  0
 25 26  1  0
 26 27  2  0
 26 28  1  0
 28 29  2  0
 29 30  1  0
 30 31  2  0
 31 32  1  0
 32 33  2  0
 17 34  1  0
 13  1  1  0
  7  3  1  0
 21 16  1  0
 33 23  1  0
 33 28  1  0
  1 35  1  0
  1 36  1  0
  2 37  1  0
  2 38  1  0
 12 39  1  0
 12 40  1  0
 18 41  1  0
 19 42  1  0
 21 43  1  0
 22 44  1  0
 22 45  1  0
 25 46  1  0
 29 47  1  0
 30 48  1  0
 31 49  1  0
 32 50  1  0
M  END
$$$$
