pamiparib
     RDKit          3D

 37 41  0  0  0  0  0  0  0  0999 V2000
   48.8560   42.0470  110.3300 C   0  0  0  0  0  0  0  0  0  0  0  0
   48.1980   40.7270  110.7460 C   0  0  2  0  0  0  0  0  0  0  0  0
   48.5520   39.6040  109.7680 C   0  0  0  0  0  0  0  0  0  0  0  0
   47.4070   38.6090  109.8890 C   0  0  0  0  0  0  0  0  0  0  0  0
   46.2300   39.4140  110.4240 C   0  0  0  0  0  0  0  0  0  0  0  0
   46.7250   40.7870  110.5910 N   0  0  0  0  0  0  0  0  0  0  0  0
   46.0060   41.5220  111.6620 C   0  0  0  0  0  0  0  0  0  0  0  0
   46.3690   41.0550  113.0850 C   0  0  0  0  0  0  0  0  0  0  0  0
   45.4950   41.1890  114.0310 N   0  0  0  0  0  0  0  0  0  0  0  0
   45.6340   40.8730  115.3490 N   0  0  0  0  0  0  0  0  0  0  0  0
   46.6290   40.3910  116.1760 C   0  0  0  0  0  0  0  0  0  0  0  0
   46.3630   40.2630  117.3760 O   0  0  0  0  0  0  0  0  0  0  0  0
   47.9810   40.0160  115.7340 C   0  0  0  0  0  0  0  0  0  0  0  0
   48.3640   40.1120  114.3980 C   0  0  0  0  0  0  0  0  0  0  0  0
   47.6960   40.5450  113.2530 C   0  0  0  0  0  0  0  0  0  0  0  0
   48.5400   40.3980  112.1720 C   0  0  0  0  0  0  0  0  0  0  0  0
   49.7350   39.9200  112.6400 N   0  0  0  0  0  0  0  0  0  0  0  0
   49.6490   39.7270  114.0030 C   0  0  0  0  0  0  0  0  0  0  0  0
   50.5930   39.2480  114.9150 C   0  0  0  0  0  0  0  0  0  0  0  0
   50.1940   39.1640  116.2480 C   0  0  0  0  0  0  0  0  0  0  0  0
   48.9210   39.5330  116.6630 C   0  0  0  0  0  0  0  0  0  0  0  0
   51.0680   38.7070  117.1560 F   0  0  0  0  0  0  0  0  0  0  0  0
   49.1390   42.6148  111.2286 H   0  0  0  0  0  0  0  0  0  0  0  0
   49.7545   41.8362  109.7314 H   0  0  0  0  0  0  0  0  0  0  0  0
   48.1468   42.6375  109.7314 H   0  0  0  0  0  0  0  0  0  0  0  0
   48.6215   39.9919  108.7410 H   0  0  0  0  0  0  0  0  0  0  0  0
   49.5260   39.1464  109.9957 H   0  0  0  0  0  0  0  0  0  0  0  0
   47.1647   38.1790  108.9059 H   0  0  0  0  0  0  0  0  0  0  0  0
   47.6628   37.7678  110.5500 H   0  0  0  0  0  0  0  0  0  0  0  0
   45.3948   39.3926  109.7084 H   0  0  0  0  0  0  0  0  0  0  0  0
   45.8557   39.0011  111.3724 H   0  0  0  0  0  0  0  0  0  0  0  0
   46.2508   42.5908  111.5742 H   0  0  0  0  0  0  0  0  0  0  0  0
   44.9329   41.3244  111.5228 H   0  0  0  0  0  0  0  0  0  0  0  0
   44.7605   41.0384  115.8691 H   0  0  0  0  0  0  0  0  0  0  0  0
   50.5682   39.7336  112.0639 H   0  0  0  0  0  0  0  0  0  0  0  0
   51.6031   38.9513  114.5962 H   0  0  0  0  0  0  0  0  0  0  0  0
   48.6459   39.4471  117.7246 H   0  0  0  0  0  0  0  0  0  0  0  0
  2  1  1  6
  2  3  1  0
  3  4  1  0
  4  5  1  0
  5  6  1  0
  6  7  1  0
  7  8  1  0
  8  9  2  0
  9 10  1  0
 10 11  1  0
 11 12  2  0
 11 13  1  0
 13 14  2  0
 14 15  1  0
 15 16  2  0
 16 17  1  0
 17 18  1  0
 18 19  2  0
 19 20  1  0
 20 21  2  0
 20 22  1  0
  6  2  1  0
 16  2  1  0
 15  8  1  0
 21 13  1  0
 18 14  1  0
  1 23  1  0
  1 24  1  0
  1 25  1  0
  3 26  1  0
  3 27  1  0
  4 28  1  0
  4 29  1  0
  5 30  1  0
  5 31  1  0
  7 32  1  0
  7 33  1  0
 10 34  1  0
 17 35  1  0
 19 36  1  0
 21 37  1  0
M  END
$$$$
