
     RDKit          3D

 55 59  0  0  0  0  0  0  0  0999 V2000
   39.8120   41.5560  108.1820 C   0  0  0  0  0  0  0  0  0  0  0  0
   40.7340   40.3770  107.8260 C   0  0  0  0  0  0  0  0  0  0  0  0
   41.5980   39.9740  108.9400 N   0  0  0  0  0  0  0  0  0  0  0  0
   40.9870   40.0080  110.2780 C   0  0  0  0  0  0  0  0  0  0  0  0
   39.4570   40.1780  110.2560 C   0  0  0  0  0  0  0  0  0  0  0  0
   39.0790   41.3190  109.4280 N   0  0  0  0  0  0  0  0  0  0  0  0
   37.7850   41.7880  109.5190 C   0  0  0  0  0  0  0  0  0  0  0  0
   36.9780   41.2850  110.4700 N   0  0  0  0  0  0  0  0  0  0  0  0
   35.7220   41.7660  110.5480 C   0  0  0  0  0  0  0  0  0  0  0  0
   35.2280   42.7330  109.7160 C   0  0  0  0  0  0  0  0  0  0  0  0
   36.1140   43.1910  108.7770 C   0  0  0  0  0  0  0  0  0  0  0  0
   37.3780   42.7410  108.6650 N   0  0  0  0  0  0  0  0  0  0  0  0
   42.9410   39.7240  108.6940 C   0  0  0  0  0  0  0  0  0  0  0  0
   43.4690   39.8100  107.5880 O   0  0  0  0  0  0  0  0  0  0  0  0
   43.8150   39.3810  109.8260 C   0  0  0  0  0  0  0  0  0  0  0  0
   43.9170   38.0670  110.2650 C   0  0  0  0  0  0  0  0  0  0  0  0
   44.7700   37.7460  111.3150 C   0  0  0  0  0  0  0  0  0  0  0  0
   45.5410   38.7460  111.9140 C   0  0  0  0  0  0  0  0  0  0  0  0
   45.4790   40.0750  111.4550 C   0  0  0  0  0  0  0  0  0  0  0  0
   44.5940   40.3870  110.4090 C   0  0  0  0  0  0  0  0  0  0  0  0
   46.3140   41.1470  112.1290 C   0  0  0  0  0  0  0  0  0  0  0  0
   47.4800   40.6350  112.8530 N   0  0  0  0  0  0  0  0  0  0  0  0
   47.4480   40.4260  114.2670 C   0  0  0  0  0  0  0  0  0  0  0  0
   48.5900   39.9490  114.9260 C   0  0  0  0  0  0  0  0  0  0  0  0
   48.5800   39.7390  116.3070 C   0  0  0  0  0  0  0  0  0  0  0  0
   47.4380   39.9970  117.0550 C   0  0  0  0  0  0  0  0  0  0  0  0
   46.2960   40.4700  116.4210 C   0  0  0  0  0  0  0  0  0  0  0  0
   46.3010   40.6850  115.0390 C   0  0  0  0  0  0  0  0  0  0  0  0
   49.6610   39.2860  116.9560 F   0  0  0  0  0  0  0  0  0  0  0  0
   49.8030   39.6770  114.1400 C   0  0  0  0  0  0  0  0  0  0  0  0
   50.8540   39.2940  114.6390 O   0  0  0  0  0  0  0  0  0  0  0  0
   49.7010   39.8870  112.7930 N   0  0  0  0  0  0  0  0  0  0  0  0
   48.6190   40.3590  112.1090 C   0  0  0  0  0  0  0  0  0  0  0  0
   48.6970   40.5120  110.8910 O   0  0  0  0  0  0  0  0  0  0  0  0
   43.1880   37.0930  109.7030 F   0  0  0  0  0  0  0  0  0  0  0  0
   40.4230   42.4636  108.2959 H   0  0  0  0  0  0  0  0  0  0  0  0
   39.0778   41.6717  107.3711 H   0  0  0  0  0  0  0  0  0  0  0  0
   40.1104   39.5183  107.5366 H   0  0  0  0  0  0  0  0  0  0  0  0
   41.3863   40.7039  107.0028 H   0  0  0  0  0  0  0  0  0  0  0  0
   41.2242   39.0649  110.7921 H   0  0  0  0  0  0  0  0  0  0  0  0
   41.4003   40.8850  110.7977 H   0  0  0  0  0  0  0  0  0  0  0  0
   38.9978   39.2662  109.8465 H   0  0  0  0  0  0  0  0  0  0  0  0
   39.1047   40.3530  111.2833 H   0  0  0  0  0  0  0  0  0  0  0  0
   35.0569   41.3586  111.3237 H   0  0  0  0  0  0  0  0  0  0  0  0
   34.1989   43.1134  109.7949 H   0  0  0  0  0  0  0  0  0  0  0  0
   35.7745   43.9684  108.0767 H   0  0  0  0  0  0  0  0  0  0  0  0
   44.8378   36.7082  111.6732 H   0  0  0  0  0  0  0  0  0  0  0  0
   46.2040   38.4914  112.7540 H   0  0  0  0  0  0  0  0  0  0  0  0
   44.5134   41.4230  110.0481 H   0  0  0  0  0  0  0  0  0  0  0  0
   46.6675   41.8453  111.3561 H   0  0  0  0  0  0  0  0  0  0  0  0
   45.6657   41.6290  112.8756 H   0  0  0  0  0  0  0  0  0  0  0  0
   47.4381   39.8279  118.1419 H   0  0  0  0  0  0  0  0  0  0  0  0
   45.3875   40.6755  117.0061 H   0  0  0  0  0  0  0  0  0  0  0  0
   45.3925   41.0631  114.5474 H   0  0  0  0  0  0  0  0  0  0  0  0
   50.5350   39.6637  112.2312 H   0  0  0  0  0  0  0  0  0  0  0  0
  1  2  1  0
  2  3  1  0
  3  4  1  0
  4  5  1  0
  5  6  1  0
  6  7  1  0
  7  8  2  0
  8  9  1  0
  9 10  2  0
 10 11  1  0
 11 12  2  0
  3 13  1  0
 13 14  2  0
 13 15  1  0
 15 16  2  0
 16 17  1  0
 17 18  2  0
 18 19  1  0
 19 20  2  0
 19 21  1  0
 21 22  1  0
 22 23  1  0
 23 24  1  0
 24 25  2  0
 25 26  1  0
 26 27  2  0
 27 28  1  0
 25 29  1  0
 24 30  1  0
 30 31  2  0
 30 32  1  0
 32 33  1  0
 33 34  2  0
 16 35  1  0
  6  1  1  0
 12  7  1  0
 20 15  1  0
 33 22  1  0
 28 23  2  0
  1 36  1  0
  1 37  1  0
  2 38  1  0
  2 39  1  0
  4 40  1  0
  4 41  1  0
  5 42  1  0
  5 43  1  0
  9 44  1  0
 10 45  1  0
 11 46  1  0
 17 47  1  0
 18 48  1  0
 20 49  1  0
 21 50  1  0
 21 51  1  0
 26 52  1  0
 27 53  1  0
 28 54  1  0
 32 55  1  0
M  END
$$$$
