veliparib
     RDKit          3D

 34 36  0  0  1  0  0  0  0  0999 V2000
   46.9350   40.5870  112.5720 C   0  0  0  0  0  0  0  0  0  0  0  0
   48.0690   40.1430  113.0830 N   0  0  0  0  0  0  0  0  0  0  0  0
   47.8980   40.1550  114.4540 C   0  0  0  0  0  0  0  0  0  0  0  0
   48.7670   39.7540  115.4890 C   0  0  0  0  0  0  0  0  0  0  0  0
   48.3230   39.8650  116.8190 C   0  0  0  0  0  0  0  0  0  0  0  0
   47.0490   40.3630  117.1120 C   0  0  0  0  0  0  0  0  0  0  0  0
   46.1750   40.7650  116.0960 C   0  0  0  0  0  0  0  0  0  0  0  0
   46.6350   40.6440  114.7830 C   0  0  0  0  0  0  0  0  0  0  0  0
   46.0550   40.9250  113.5740 N   0  0  0  0  0  0  0  0  0  0  0  0
   45.1170   41.2650  113.4100 H   0  0  0  0  0  0  0  0  0  0  0  0
   47.1070   42.0630  110.5800 C   0  0  0  0  0  0  0  0  0  0  0  0
   46.5750   40.7260  111.1100 C   0  0  1  0  0  0  0  0  0  0  0  0
   47.1040   39.5450  110.2790 C   0  0  0  0  0  0  0  0  0  0  0  0
   45.9370   38.5670  110.1620 C   0  0  0  0  0  0  0  0  0  0  0  0
   44.8000   39.2090  110.9300 C   0  0  0  0  0  0  0  0  0  0  0  0
   45.1030   40.6480  110.9240 N   0  0  0  0  0  0  0  0  0  0  0  0
   44.8880   41.0030  109.9900 H   0  0  0  0  0  0  0  0  0  0  0  0
   50.1220   39.2160  115.2090 C   0  0  0  0  0  0  0  0  0  0  0  0
   50.5950   38.2960  115.8650 O   0  0  0  0  0  0  0  0  0  0  0  0
   50.8250   39.7860  114.1870 N   0  0  0  0  0  0  0  0  0  0  0  0
   50.4310   40.5510  113.6430 H   0  0  0  0  0  0  0  0  0  0  0  0
   51.7500   39.4450  113.9730 H   0  0  0  0  0  0  0  0  0  0  0  0
   48.9867   39.5560  117.6400 H   0  0  0  0  0  0  0  0  0  0  0  0
   46.7281   40.4400  118.1613 H   0  0  0  0  0  0  0  0  0  0  0  0
   45.1725   41.1579  116.3209 H   0  0  0  0  0  0  0  0  0  0  0  0
   47.3667   42.7157  111.4265 H   0  0  0  0  0  0  0  0  0  0  0  0
   48.0025   41.8841  109.9667 H   0  0  0  0  0  0  0  0  0  0  0  0
   46.3334   42.5482  109.9667 H   0  0  0  0  0  0  0  0  0  0  0  0
   47.4186   39.8878  109.2823 H   0  0  0  0  0  0  0  0  0  0  0  0
   47.9805   39.0768  110.7507 H   0  0  0  0  0  0  0  0  0  0  0  0
   45.6578   38.4244  109.1076 H   0  0  0  0  0  0  0  0  0  0  0  0
   46.1922   37.5739  110.5604 H   0  0  0  0  0  0  0  0  0  0  0  0
   43.8385   39.0141  110.4325 H   0  0  0  0  0  0  0  0  0  0  0  0
   44.7125   38.8089  111.9509 H   0  0  0  0  0  0  0  0  0  0  0  0
  1  2  2  0
  1  9  1  0
  2  3  1  0
  3  8  1  0
  3  4  2  0
  4  5  1  0
  5  6  2  0
  7  6  1  0
  8  7  2  0
  9  8  1  0
 10  9  1  0
 12 11  1  6
 12  1  1  0
 13 12  1  0
 14 13  1  0
 14 15  1  0
 16 15  1  0
 16 12  1  0
 17 16  1  0
 18  4  1  0
 18 19  2  0
 20 18  1  0
 21 20  1  0
 22 20  1  0
  5 23  1  0
  6 24  1  0
  7 25  1  0
 11 26  1  0
 11 27  1  0
 11 28  1  0
 13 29  1  0
 13 30  1  0
 14 31  1  0
 14 32  1  0
 15 33  1  0
 15 34  1  0
M  END
