veliparib
     RDKit          3D

 22 24  0  0  1  0  0  0  0  0999 V2000
   46.9350   40.5870  112.5720 C   0  0  0  0  0  0  0  0  0  0  0  0
   48.0690   40.1430  113.0830 N   0  0  0  0  0  0  0  0  0  0  0  0
   47.8980   40.1550  114.4540 C   0  0  0  0  0  0  0  0  0  0  0  0
   48.7670   39.7540  115.4890 C   0  0  0  0  0  0  0  0  0  0  0  0
   48.3230   39.8650  116.8190 C   0  0  0  0  0  3  0  0  0  0  0  0
   47.0490   40.3630  117.1120 C   0  0  0  0  0  3  0  0  0  0  0  0
   46.1750   40.7650  116.0960 C   0  0  0  0  0  3  0  0  0  0  0  0
   46.6350   40.6440  114.7830 C   0  0  0  0  0  0  0  0  0  0  0  0
   46.0550   40.9250  113.5740 N   0  0  0  0  0  0  0  0  0  0  0  0
   45.1170   41.2650  113.4100 H   0  0  0  0  0  0  0  0  0  0  0  0
   47.1070   42.0630  110.5800 C   0  0  0  0  0  1  0  0  0  0  0  0
   46.5750   40.7260  111.1100 C   0  0  1  0  0  0  0  0  0  0  0  0
   47.1040   39.5450  110.2790 C   0  0  0  0  0  2  0  0  0  0  0  0
   45.9370   38.5670  110.1620 C   0  0  0  0  0  2  0  0  0  0  0  0
   44.8000   39.2090  110.9300 C   0  0  0  0  0  2  0  0  0  0  0  0
   45.1030   40.6480  110.9240 N   0  0  0  0  0  0  0  0  0  0  0  0
   44.8880   41.0030  109.9900 H   0  0  0  0  0  0  0  0  0  0  0  0
   50.1220   39.2160  115.2090 C   0  0  0  0  0  0  0  0  0  0  0  0
   50.5950   38.2960  115.8650 O   0  0  0  0  0  0  0  0  0  0  0  0
   50.8250   39.7860  114.1870 N   0  0  0  0  0  0  0  0  0  0  0  0
   50.4310   40.5510  113.6430 H   0  0  0  0  0  0  0  0  0  0  0  0
   51.7500   39.4450  113.9730 H   0  0  0  0  0  0  0  0  0  0  0  0
  1  2  2  0
  1  9  1  0
  2  3  1  0
  3  8  1  0
  3  4  2  0
  4  5  1  0
  5  6  2  0
  7  6  1  0
  8  7  2  0
  9  8  1  0
 10  9  1  0
 12 11  1  6
 12  1  1  0
 13 12  1  0
 14 13  1  0
 14 15  1  0
 16 15  1  0
 16 12  1  0
 17 16  1  0
 18  4  1  0
 18 19  2  0
 20 18  1  0
 21 20  1  0
 22 20  1  0
M  RAD  7   5   2   6   2   7   2  11   2  13   3  14   3  15   3
M  END
