@<TRIPOS>MOLECULE
AZD5305
  56 59 0 0 0
SMALL
USER_CHARGES

@<TRIPOS>ATOM
     1 N       43.2440    39.9170   111.3610 N.3    1  UNL1        0.0000
     2 C       43.2850    38.6670   110.5610 C.3    1  UNL1        0.0000
     3 C       42.6470    38.7160   109.1500 C.3    1  UNL1        0.0000
     4 N       41.3100    39.3330   109.1930 N.2    1  UNL1        0.0000
     5 C       41.2080    40.5860   109.9580 C.3    1  UNL1        0.0000
     6 C       41.8590    40.4270   111.3530 C.3    1  UNL1        0.0000
     7 C       40.3410    38.9960   108.2600 C.ar   1  UNL1        0.0000
     8 C       38.9700    39.1600   108.4980 C.ar   1  UNL1        0.0000
     9 C       38.0130    38.6680   107.6050 C.ar   1  UNL1        0.0000
    10 C       38.4400    38.0040   106.4680 C.ar   1  UNL1        0.0000
    11 N       39.7570    37.8680   106.1400 N.ar   1  UNL1        0.0000
    12 C       40.6520    38.3740   107.0410 C.ar   1  UNL1        0.0000
    13 C       37.4450    37.3230   105.5790 C.2    1  UNL1        0.0000
    14 O       36.5280    37.9470   105.0580 O.2    1  UNL1        0.0000
    15 N       37.6330    35.9650   105.4340 N.2    1  UNL1        0.0000
    16 C       36.7680    35.1400   104.6330 C.3    1  UNL1        0.0000
    17 H       38.4600    35.5720   105.8730 H      1  UNL1        0.0000
    18 C       44.2240    40.9380   110.9490 C.3    1  UNL1        0.0000
    19 C       48.2810    39.8760   115.8080 C.ar   1  UNL1        0.0000
    20 C       48.5420    40.0760   114.5030 C.ar   1  UNL1        0.0000
    21 C       47.4960    40.5350   113.5940 C.ar   1  UNL1        0.0000
    22 N       47.7480    40.4580   112.2700 N.ar   1  UNL1        0.0000
    23 C       46.6900    40.6700   111.4500 C.ar   1  UNL1        0.0000
    24 C       45.4070    40.9970   111.8910 C.ar   1  UNL1        0.0000
    25 C       45.2290    41.2320   113.2610 C.ar   1  UNL1        0.0000
    26 C       46.2650    40.9130   114.1260 C.ar   1  UNL1        0.0000
    27 N       46.0370    40.8120   115.5030 N.ar   1  UNL1        0.0000
    28 C       46.9250    40.2100   116.3580 C.ar   1  UNL1        0.0000
    29 O       46.6140    39.9550   117.5160 O.2    1  UNL1        0.0000
    30 H       45.1200    41.0060   115.8830 H      1  UNL1        0.0000
    31 C       50.3590    38.4860   116.0880 C.3    1  UNL1        0.0000
    32 C       49.3030    39.3430   116.7750 C.3    1  UNL1        0.0000
    33 H       44.3413    38.3855   110.4384 H      1  UNL1        0.0000
    34 H       42.6765    37.9453   111.1257 H      1  UNL1        0.0000
    35 H       42.5572    37.6911   108.7606 H      1  UNL1        0.0000
    36 H       43.2908    39.3231   108.4966 H      1  UNL1        0.0000
    37 H       41.7224    41.3881   109.4083 H      1  UNL1        0.0000
    38 H       40.1448    40.8359   110.0892 H      1  UNL1        0.0000
    39 H       41.8598    41.4136   111.8395 H      1  UNL1        0.0000
    40 H       41.2587    39.6696   111.8783 H      1  UNL1        0.0000
    41 H       38.6398    39.6864   109.4057 H      1  UNL1        0.0000
    42 H       36.9398    38.8062   107.8026 H      1  UNL1        0.0000
    43 H       41.7183    38.2851   106.7860 H      1  UNL1        0.0000
    44 H       36.1298    34.5313   105.2904 H      1  UNL1        0.0000
    45 H       36.1366    35.7789   103.9981 H      1  UNL1        0.0000
    46 H       37.3763    34.4791   103.9981 H      1  UNL1        0.0000
    47 H       44.5856    40.6966   109.9386 H      1  UNL1        0.0000
    48 H       43.7241    41.9177   110.9676 H      1  UNL1        0.0000
    49 H       49.5553    39.8915   114.1168 H      1  UNL1        0.0000
    50 H       46.8532    40.5783   110.3660 H      1  UNL1        0.0000
    51 H       44.2895    41.6595   113.6414 H      1  UNL1        0.0000
    52 H       50.9762    37.9851   116.8484 H      1  UNL1        0.0000
    53 H       49.8656    37.7297   115.4598 H      1  UNL1        0.0000
    54 H       50.9975    39.1245   115.4598 H      1  UNL1        0.0000
    55 H       49.8013    40.1918   117.2662 H      1  UNL1        0.0000
    56 H       48.7773    38.7085   117.5037 H      1  UNL1        0.0000
@<TRIPOS>BOND
     1     2     1 1
     2     3     4 1
     3     3     2 1
     4     4     5 1
     5     5     6 1
     6     6     1 1
     7     7     8 ar
     8     7     4 1
     9     9     8 ar
    10    10     9 ar
    11    11    10 ar
    12    11    12 ar
    13    12     7 ar
    14    13    10 1
    15    14    13 2
    16    15    13 1
    17    15    17 1
    18    16    15 1
    19    18     1 1
    20    18    24 1
    21    19    28 ar
    22    19    32 1
    23    20    19 ar
    24    21    26 ar
    25    21    20 ar
    26    22    21 ar
    27    23    24 ar
    28    23    22 ar
    29    24    25 ar
    30    25    26 ar
    31    26    27 ar
    32    27    30 1
    33    27    28 ar
    34    28    29 1
    35    31    32 1
    36     2    33 1
    37     2    34 1
    38     3    35 1
    39     3    36 1
    40     5    37 1
    41     5    38 1
    42     6    39 1
    43     6    40 1
    44     8    41 1
    45     9    42 1
    46    12    43 1
    47    16    44 1
    48    16    45 1
    49    16    46 1
    50    18    47 1
    51    18    48 1
    52    20    49 1
    53    23    50 1
    54    25    51 1
    55    31    52 1
    56    31    53 1
    57    31    54 1
    58    32    55 1
    59    32    56 1
