@<TRIPOS>MOLECULE
fluzoparib
  50 54 0 0 0
SMALL
USER_CHARGES

@<TRIPOS>ATOM
     1 C       40.0340    39.2680   112.0040 C.3    1  UNL1        0.0000
     2 C       39.0900    38.5750   111.0290 C.3    1  UNL1        0.0000
     3 N       39.2190    39.1920   109.7250 N.ar   1  UNL1        0.0000
     4 C       40.2720    39.9560   109.3090 C.ar   1  UNL1        0.0000
     5 N       40.0680    40.3100   108.0590 N.ar   1  UNL1        0.0000
     6 C       38.8470    39.7250   107.7360 C.ar   1  UNL1        0.0000
     7 N       38.3030    39.0280   108.7590 N.ar   1  UNL1        0.0000
     8 C       38.2010    39.8620   106.3730 C.3    1  UNL1        0.0000
     9 F       37.3800    40.9470   106.2950 F      1  UNL1        0.0000
    10 F       37.4430    38.7770   106.0480 F      1  UNL1        0.0000
    11 F       39.1130    40.0020   105.3700 F      1  UNL1        0.0000
    12 C       41.4100    40.2940   110.2160 C.3    1  UNL1        0.0000
    13 N       41.3630    39.4250   111.4020 N.2    1  UNL1        0.0000
    14 C       42.3360    38.4780   111.7060 C.2    1  UNL1        0.0000
    15 O       42.0920    37.4740   112.3750 O.2    1  UNL1        0.0000
    16 C       43.7180    38.6470   111.2140 C.ar   1  UNL1        0.0000
    17 C       44.2250    37.8630   110.1810 C.ar   1  UNL1        0.0000
    18 C       45.5180    38.0690   109.7110 C.ar   1  UNL1        0.0000
    19 C       46.3050    39.0850   110.2600 C.ar   1  UNL1        0.0000
    20 C       45.7960    39.9140   111.2720 C.ar   1  UNL1        0.0000
    21 C       44.4990    39.6800   111.7520 C.ar   1  UNL1        0.0000
    22 C       46.6390    41.0230   111.8620 C.3    1  UNL1        0.0000
    23 C       47.7320    40.5190   112.7960 C.ar   1  UNL1        0.0000
    24 N       48.8780    40.2220   112.2550 N.ar   1  UNL1        0.0000
    25 N       49.8790    39.7800   113.0610 N.ar   1  UNL1        0.0000
    26 C       49.8100    39.6130   114.4220 C.ar   1  UNL1        0.0000
    27 O       50.7610    39.2110   115.0830 O.2    1  UNL1        0.0000
    28 C       48.5220    39.9440   115.0510 C.ar   1  UNL1        0.0000
    29 C       48.3600    39.8030   116.4360 C.ar   1  UNL1        0.0000
    30 C       47.1390    40.1190   117.0250 C.ar   1  UNL1        0.0000
    31 C       46.0820    40.5710   116.2340 C.ar   1  UNL1        0.0000
    32 C       46.2450    40.7090   114.8520 C.ar   1  UNL1        0.0000
    33 C       47.4720    40.3960   114.2540 C.ar   1  UNL1        0.0000
    34 F       43.4870    36.8940   109.6230 F      1  UNL1        0.0000
    35 H       39.6307    40.2597   112.2567 H      1  UNL1        0.0000
    36 H       40.1231    38.6546   112.9127 H      1  UNL1        0.0000
    37 H       39.3503    37.5085   110.9593 H      1  UNL1        0.0000
    38 H       38.0535    38.6723   111.3842 H      1  UNL1        0.0000
    39 H       42.3610    40.1396   109.6851 H      1  UNL1        0.0000
    40 H       41.3321    41.3461   110.5275 H      1  UNL1        0.0000
    41 H       45.9203    37.4332   108.9085 H      1  UNL1        0.0000
    42 H       47.3319    39.2364   109.8960 H      1  UNL1        0.0000
    43 H       44.0918    40.3110   112.5558 H      1  UNL1        0.0000
    44 H       47.1123    41.5774   111.0382 H      1  UNL1        0.0000
    45 H       45.9686    41.6587   112.4590 H      1  UNL1        0.0000
    46 H       50.7744    39.5483   112.6078 H      1  UNL1        0.0000
    47 H       49.1950    39.4438   117.0555 H      1  UNL1        0.0000
    48 H       47.0076    40.0126   118.1119 H      1  UNL1        0.0000
    49 H       45.1168    40.8197   116.6994 H      1  UNL1        0.0000
    50 H       45.4077    41.0642   114.2333 H      1  UNL1        0.0000
@<TRIPOS>BOND
     1     1     2 1
     2     2     3 1
     3     3     4 ar
     4     4     5 ar
     5     5     6 ar
     6     6     7 ar
     7     6     8 1
     8     8     9 1
     9     8    10 1
    10     8    11 1
    11     4    12 1
    12    12    13 1
    13    13    14 1
    14    14    15 2
    15    14    16 1
    16    16    17 ar
    17    17    18 ar
    18    18    19 ar
    19    19    20 ar
    20    20    21 ar
    21    20    22 1
    22    22    23 1
    23    23    24 ar
    24    24    25 ar
    25    25    26 ar
    26    26    27 1
    27    26    28 ar
    28    28    29 ar
    29    29    30 ar
    30    30    31 ar
    31    31    32 ar
    32    32    33 ar
    33    17    34 1
    34    13     1 1
    35     7     3 ar
    36    21    16 ar
    37    33    23 ar
    38    33    28 ar
    39     1    35 1
    40     1    36 1
    41     2    37 1
    42     2    38 1
    43    12    39 1
    44    12    40 1
    45    18    41 1
    46    19    42 1
    47    21    43 1
    48    22    44 1
    49    22    45 1
    50    25    46 1
    51    29    47 1
    52    30    48 1
    53    31    49 1
    54    32    50 1
