@<TRIPOS>MOLECULE
pamiparib
  37 41 0 0 0
SMALL
USER_CHARGES

@<TRIPOS>ATOM
     1 C       48.8560    42.0470   110.3300 C.3    1  UNL1        0.0000
     2 C       48.1980    40.7270   110.7460 C.3    1  UNL1        0.0000
     3 C       48.5520    39.6040   109.7680 C.3    1  UNL1        0.0000
     4 C       47.4070    38.6090   109.8890 C.3    1  UNL1        0.0000
     5 C       46.2300    39.4140   110.4240 C.3    1  UNL1        0.0000
     6 N       46.7250    40.7870   110.5910 N.3    1  UNL1        0.0000
     7 C       46.0060    41.5220   111.6620 C.3    1  UNL1        0.0000
     8 C       46.3690    41.0550   113.0850 C.2    1  UNL1        0.0000
     9 N       45.4950    41.1890   114.0310 N.2    1  UNL1        0.0000
    10 N       45.6340    40.8730   115.3490 N.2    1  UNL1        0.0000
    11 C       46.6290    40.3910   116.1760 C.2    1  UNL1        0.0000
    12 O       46.3630    40.2630   117.3760 O.2    1  UNL1        0.0000
    13 C       47.9810    40.0160   115.7340 C.ar   1  UNL1        0.0000
    14 C       48.3640    40.1120   114.3980 C.ar   1  UNL1        0.0000
    15 C       47.6960    40.5450   113.2530 C.ar   1  UNL1        0.0000
    16 C       48.5400    40.3980   112.1720 C.ar   1  UNL1        0.0000
    17 N       49.7350    39.9200   112.6400 N.ar   1  UNL1        0.0000
    18 C       49.6490    39.7270   114.0030 C.ar   1  UNL1        0.0000
    19 C       50.5930    39.2480   114.9150 C.ar   1  UNL1        0.0000
    20 C       50.1940    39.1640   116.2480 C.ar   1  UNL1        0.0000
    21 C       48.9210    39.5330   116.6630 C.ar   1  UNL1        0.0000
    22 F       51.0680    38.7070   117.1560 F      1  UNL1        0.0000
    23 H       49.1390    42.6148   111.2286 H      1  UNL1        0.0000
    24 H       49.7545    41.8362   109.7314 H      1  UNL1        0.0000
    25 H       48.1468    42.6375   109.7314 H      1  UNL1        0.0000
    26 H       48.6215    39.9919   108.7410 H      1  UNL1        0.0000
    27 H       49.5260    39.1464   109.9957 H      1  UNL1        0.0000
    28 H       47.1647    38.1790   108.9059 H      1  UNL1        0.0000
    29 H       47.6628    37.7678   110.5500 H      1  UNL1        0.0000
    30 H       45.3948    39.3926   109.7084 H      1  UNL1        0.0000
    31 H       45.8557    39.0011   111.3724 H      1  UNL1        0.0000
    32 H       46.2508    42.5908   111.5742 H      1  UNL1        0.0000
    33 H       44.9329    41.3244   111.5228 H      1  UNL1        0.0000
    34 H       44.7605    41.0384   115.8691 H      1  UNL1        0.0000
    35 H       50.5682    39.7336   112.0639 H      1  UNL1        0.0000
    36 H       51.6031    38.9513   114.5962 H      1  UNL1        0.0000
    37 H       48.6459    39.4471   117.7246 H      1  UNL1        0.0000
@<TRIPOS>BOND
     1     2     1 1
     2     2     3 1
     3     3     4 1
     4     4     5 1
     5     5     6 1
     6     6     7 1
     7     7     8 1
     8     8     9 2
     9     9    10 1
    10    10    11 1
    11    11    12 2
    12    11    13 1
    13    13    14 ar
    14    14    15 ar
    15    15    16 ar
    16    16    17 ar
    17    17    18 ar
    18    18    19 ar
    19    19    20 ar
    20    20    21 ar
    21    20    22 1
    22     6     2 1
    23    16     2 1
    24    15     8 1
    25    21    13 ar
    26    18    14 ar
    27     1    23 1
    28     1    24 1
    29     1    25 1
    30     3    26 1
    31     3    27 1
    32     4    28 1
    33     4    29 1
    34     5    30 1
    35     5    31 1
    36     7    32 1
    37     7    33 1
    38    10    34 1
    39    17    35 1
    40    19    36 1
    41    21    37 1
