@<TRIPOS>MOLECULE
senaparib
  55 59 0 0 0
SMALL
USER_CHARGES

@<TRIPOS>ATOM
     1 C       39.8120    41.5560   108.1820 C.3    1  UNL1        0.0000
     2 C       40.7340    40.3770   107.8260 C.3    1  UNL1        0.0000
     3 N       41.5980    39.9740   108.9400 N.2    1  UNL1        0.0000
     4 C       40.9870    40.0080   110.2780 C.3    1  UNL1        0.0000
     5 C       39.4570    40.1780   110.2560 C.3    1  UNL1        0.0000
     6 N       39.0790    41.3190   109.4280 N.2    1  UNL1        0.0000
     7 C       37.7850    41.7880   109.5190 C.ar   1  UNL1        0.0000
     8 N       36.9780    41.2850   110.4700 N.ar   1  UNL1        0.0000
     9 C       35.7220    41.7660   110.5480 C.ar   1  UNL1        0.0000
    10 C       35.2280    42.7330   109.7160 C.ar   1  UNL1        0.0000
    11 C       36.1140    43.1910   108.7770 C.ar   1  UNL1        0.0000
    12 N       37.3780    42.7410   108.6650 N.ar   1  UNL1        0.0000
    13 C       42.9410    39.7240   108.6940 C.2    1  UNL1        0.0000
    14 O       43.4690    39.8100   107.5880 O.2    1  UNL1        0.0000
    15 C       43.8150    39.3810   109.8260 C.ar   1  UNL1        0.0000
    16 C       43.9170    38.0670   110.2650 C.ar   1  UNL1        0.0000
    17 C       44.7700    37.7460   111.3150 C.ar   1  UNL1        0.0000
    18 C       45.5410    38.7460   111.9140 C.ar   1  UNL1        0.0000
    19 C       45.4790    40.0750   111.4550 C.ar   1  UNL1        0.0000
    20 C       44.5940    40.3870   110.4090 C.ar   1  UNL1        0.0000
    21 C       46.3140    41.1470   112.1290 C.3    1  UNL1        0.0000
    22 N       47.4800    40.6350   112.8530 N.ar   1  UNL1        0.0000
    23 C       47.4480    40.4260   114.2670 C.ar   1  UNL1        0.0000
    24 C       48.5900    39.9490   114.9260 C.ar   1  UNL1        0.0000
    25 C       48.5800    39.7390   116.3070 C.ar   1  UNL1        0.0000
    26 C       47.4380    39.9970   117.0550 C.ar   1  UNL1        0.0000
    27 C       46.2960    40.4700   116.4210 C.ar   1  UNL1        0.0000
    28 C       46.3010    40.6850   115.0390 C.ar   1  UNL1        0.0000
    29 F       49.6610    39.2860   116.9560 F      1  UNL1        0.0000
    30 C       49.8030    39.6770   114.1400 C.ar   1  UNL1        0.0000
    31 O       50.8540    39.2940   114.6390 O.2    1  UNL1        0.0000
    32 N       49.7010    39.8870   112.7930 N.ar   1  UNL1        0.0000
    33 C       48.6190    40.3590   112.1090 C.ar   1  UNL1        0.0000
    34 O       48.6970    40.5120   110.8910 O.2    1  UNL1        0.0000
    35 F       43.1880    37.0930   109.7030 F      1  UNL1        0.0000
    36 H       40.4230    42.4636   108.2959 H      1  UNL1        0.0000
    37 H       39.0778    41.6717   107.3711 H      1  UNL1        0.0000
    38 H       40.1104    39.5183   107.5366 H      1  UNL1        0.0000
    39 H       41.3863    40.7039   107.0028 H      1  UNL1        0.0000
    40 H       41.2242    39.0649   110.7921 H      1  UNL1        0.0000
    41 H       41.4003    40.8850   110.7977 H      1  UNL1        0.0000
    42 H       38.9978    39.2662   109.8465 H      1  UNL1        0.0000
    43 H       39.1047    40.3530   111.2833 H      1  UNL1        0.0000
    44 H       35.0569    41.3586   111.3237 H      1  UNL1        0.0000
    45 H       34.1989    43.1134   109.7949 H      1  UNL1        0.0000
    46 H       35.7745    43.9684   108.0767 H      1  UNL1        0.0000
    47 H       44.8378    36.7082   111.6732 H      1  UNL1        0.0000
    48 H       46.2040    38.4914   112.7540 H      1  UNL1        0.0000
    49 H       44.5134    41.4230   110.0481 H      1  UNL1        0.0000
    50 H       46.6675    41.8453   111.3561 H      1  UNL1        0.0000
    51 H       45.6657    41.6290   112.8756 H      1  UNL1        0.0000
    52 H       47.4381    39.8279   118.1419 H      1  UNL1        0.0000
    53 H       45.3875    40.6755   117.0061 H      1  UNL1        0.0000
    54 H       45.3925    41.0631   114.5474 H      1  UNL1        0.0000
    55 H       50.5350    39.6637   112.2312 H      1  UNL1        0.0000
@<TRIPOS>BOND
     1     1     2 1
     2     2     3 1
     3     3     4 1
     4     4     5 1
     5     5     6 1
     6     6     7 1
     7     7     8 ar
     8     8     9 ar
     9     9    10 ar
    10    10    11 ar
    11    11    12 ar
    12     3    13 1
    13    13    14 2
    14    13    15 1
    15    15    16 ar
    16    16    17 ar
    17    17    18 ar
    18    18    19 ar
    19    19    20 ar
    20    19    21 1
    21    21    22 1
    22    22    23 ar
    23    23    24 ar
    24    24    25 ar
    25    25    26 ar
    26    26    27 ar
    27    27    28 ar
    28    25    29 1
    29    24    30 ar
    30    30    31 1
    31    30    32 ar
    32    32    33 ar
    33    33    34 1
    34    16    35 1
    35     6     1 1
    36    12     7 ar
    37    20    15 ar
    38    33    22 ar
    39    28    23 ar
    40     1    36 1
    41     1    37 1
    42     2    38 1
    43     2    39 1
    44     4    40 1
    45     4    41 1
    46     5    42 1
    47     5    43 1
    48     9    44 1
    49    10    45 1
    50    11    46 1
    51    17    47 1
    52    18    48 1
    53    20    49 1
    54    21    50 1
    55    21    51 1
    56    26    52 1
    57    27    53 1
    58    28    54 1
    59    32    55 1
