@<TRIPOS>MOLECULE
veliparib
  34 36 0 0 0
SMALL
USER_CHARGES

@<TRIPOS>ATOM
     1 C       46.9350    40.5870   112.5720 C.ar   1  UNL1        0.0000
     2 N       48.0690    40.1430   113.0830 N.ar   1  UNL1        0.0000
     3 C       47.8980    40.1550   114.4540 C.ar   1  UNL1        0.0000
     4 C       48.7670    39.7540   115.4890 C.ar   1  UNL1        0.0000
     5 C       48.3230    39.8650   116.8190 C.ar   1  UNL1        0.0000
     6 C       47.0490    40.3630   117.1120 C.ar   1  UNL1        0.0000
     7 C       46.1750    40.7650   116.0960 C.ar   1  UNL1        0.0000
     8 C       46.6350    40.6440   114.7830 C.ar   1  UNL1        0.0000
     9 N       46.0550    40.9250   113.5740 N.ar   1  UNL1        0.0000
    10 H       45.1170    41.2650   113.4100 H      1  UNL1        0.0000
    11 C       47.1070    42.0630   110.5800 C.3    1  UNL1        0.0000
    12 C       46.5750    40.7260   111.1100 C.3    1  UNL1        0.0000
    13 C       47.1040    39.5450   110.2790 C.3    1  UNL1        0.0000
    14 C       45.9370    38.5670   110.1620 C.3    1  UNL1        0.0000
    15 C       44.8000    39.2090   110.9300 C.3    1  UNL1        0.0000
    16 N       45.1030    40.6480   110.9240 N.3    1  UNL1        0.0000
    17 H       44.8880    41.0030   109.9900 H      1  UNL1        0.0000
    18 C       50.1220    39.2160   115.2090 C.2    1  UNL1        0.0000
    19 O       50.5950    38.2960   115.8650 O.2    1  UNL1        0.0000
    20 N       50.8250    39.7860   114.1870 N.2    1  UNL1        0.0000
    21 H       50.4310    40.5510   113.6430 H      1  UNL1        0.0000
    22 H       51.7500    39.4450   113.9730 H      1  UNL1        0.0000
    23 H       48.9867    39.5560   117.6400 H      1  UNL1        0.0000
    24 H       46.7281    40.4400   118.1613 H      1  UNL1        0.0000
    25 H       45.1725    41.1579   116.3209 H      1  UNL1        0.0000
    26 H       47.3667    42.7157   111.4265 H      1  UNL1        0.0000
    27 H       48.0025    41.8841   109.9667 H      1  UNL1        0.0000
    28 H       46.3334    42.5482   109.9667 H      1  UNL1        0.0000
    29 H       47.4186    39.8878   109.2823 H      1  UNL1        0.0000
    30 H       47.9805    39.0768   110.7507 H      1  UNL1        0.0000
    31 H       45.6578    38.4244   109.1076 H      1  UNL1        0.0000
    32 H       46.1922    37.5739   110.5604 H      1  UNL1        0.0000
    33 H       43.8385    39.0141   110.4325 H      1  UNL1        0.0000
    34 H       44.7125    38.8089   111.9509 H      1  UNL1        0.0000
@<TRIPOS>BOND
     1     1     2 ar
     2     1     9 ar
     3     2     3 ar
     4     3     8 ar
     5     3     4 ar
     6     4     5 ar
     7     5     6 ar
     8     7     6 ar
     9     8     7 ar
    10     9     8 ar
    11    10     9 1
    12    12    11 1
    13    12     1 1
    14    13    12 1
    15    14    13 1
    16    14    15 1
    17    16    15 1
    18    16    12 1
    19    17    16 1
    20    18     4 1
    21    18    19 2
    22    20    18 1
    23    21    20 1
    24    22    20 1
    25     5    23 1
    26     6    24 1
    27     7    25 1
    28    11    26 1
    29    11    27 1
    30    11    28 1
    31    13    29 1
    32    13    30 1
    33    14    31 1
    34    14    32 1
    35    15    33 1
    36    15    34 1
